
##########################################################################
#               Crystallographic Information Format file
#               Produced by PyCifRW module
#
#  This is a CIF file.  CIF has been adopted by the International
#  Union of Crystallography as the standard for data archiving and
#  transmission.
#
#  For information on this file format, follow the CIF links at
#  http://www.iucr.org
##########################################################################

data_0

loop_
  _atom_site_label
  _atom_site_fract_x
  _atom_site_fract_y
  _atom_site_fract_z
  _atom_site_type_symbol
         La1       0.0       0.0       0.0       La
         N1        0.5000000000000008  0.49999999999999833           0.5       N
_cell_angle_alpha                       60.00000000000007
_cell_angle_beta                        60.00000000000003
_cell_angle_gamma                       60.00000000000003
_cell_length_a                          3.75895
_cell_length_b                          3.758950000000004
_cell_length_c                          3.758950000000003
loop_
  _symmetry_equiv_pos_as_xyz
         'x, y, z'
_symmetry_int_tables_number             1
_symmetry_space_group_name_H-M          'P 1'
