
##########################################################################
#               Crystallographic Information Format file
#               Produced by PyCifRW module
#
#  This is a CIF file.  CIF has been adopted by the International
#  Union of Crystallography as the standard for data archiving and
#  transmission.
#
#  For information on this file format, follow the CIF links at
#  http://www.iucr.org
##########################################################################

data_0

loop_
  _atom_site_label
  _atom_site_fract_x
  _atom_site_fract_y
  _atom_site_fract_z
  _atom_site_type_symbol
         Si1       0.0       0.0       0.0       Si        
         F1        0.67341   0.6734100000000001  0.6734099999999997  F         
         F2        1.6038652554062508e-16        0.3265900000000003  0.0       F        
         F3        2.6708446210482795e-16        3.888351271465246e-16         0.32659000000000027          F        
         F4        0.32659000000000005           0.0       0.0       F 
_cell_angle_alpha                       109.47100000000003
_cell_angle_beta                        109.471
_cell_angle_gamma                       109.47100000000005
_cell_length_a                          4.84552
_cell_length_b                          4.845519999999997
_cell_length_c                          4.845520000000004
loop_
  _symmetry_equiv_pos_as_xyz
         'x, y, z' 
_symmetry_int_tables_number             1
_symmetry_space_group_name_H-M          'P 1'