
##########################################################################
#               Crystallographic Information Format file
#               Produced by PyCifRW module
#
#  This is a CIF file.  CIF has been adopted by the International
#  Union of Crystallography as the standard for data archiving and
#  transmission.
#
#  For information on this file format, follow the CIF links at
#  http://www.iucr.org
##########################################################################

data_0

loop_
  _atom_site_label
  _atom_site_fract_x
  _atom_site_fract_y
  _atom_site_fract_z
  _atom_site_type_symbol
         F1        0.31445730703729646           0.0       0.0       F
         F2        0.9999999999999879  0.31445730703729646           0.9999999999999879 F
         F3        0.6855426929627139  0.6855426929627139  0.6855426929627139  F
         F4        0.0       0.0       0.3144573070372861  F
         Si1       0.0       0.0       0.0       Si
_cell_angle_alpha                       109.47122063449069
_cell_angle_beta                        109.47122063449069
_cell_angle_gamma                       109.47122063449069
_cell_length_a                          5.008960552869808
_cell_length_b                          5.008960552869808
_cell_length_c                          5.008960552869808
loop_
  _symmetry_equiv_pos_as_xyz
         'x, y, z'
_symmetry_int_tables_number             1
_symmetry_space_group_name_H-M          'P 1'
