
##########################################################################
#               Crystallographic Information Format file
#               Produced by PyCifRW module
#
#  This is a CIF file.  CIF has been adopted by the International
#  Union of Crystallography as the standard for data archiving and
#  transmission.
#
#  For information on this file format, follow the CIF links at
#  http://www.iucr.org
##########################################################################

data_0

loop_
  _atom_site_label
  _atom_site_fract_x
  _atom_site_fract_y
  _atom_site_fract_z
  _atom_site_type_symbol
         Pr1       0.0       0.0       0.0       Pr
_cell_angle_alpha                       109.47122063449069
_cell_angle_beta                        109.47122063449069
_cell_angle_gamma                       109.47122063449069
_cell_length_a                          3.1083943529481033
_cell_length_b                          3.1083943529481033
_cell_length_c                          3.1083943529481033
loop_
  _symmetry_equiv_pos_as_xyz
         'x, y, z'
_symmetry_int_tables_number             1
_symmetry_space_group_name_H-M          'P 1'
